Circuit: * C:\Users\jblan\Google Drive\Electronics Lab\Lab4\GivenDocuments\Lab_4_BJT_Curve_Trace_ (1).asc

.step i1=0.0001
.step i1=0.0002
.step i1=0.0003
.step i1=0.0004
.step i1=0.0005
.step i1=0.0006
.step i1=0.0007
.step i1=0.0008
.step i1=0.0009
.step i1=0.001

Date: Sun Mar 29 11:40:56 2020
Total elapsed time: 0.059 seconds.

tnom = 27
temp = 27
method = trap
totiter = 3121
traniter = 0
tranpoints = 0
accept = 0
rejected = 0
matrix size = 6
fillins = 0
solver = Normal
Matrix Compiler1:      20 opcodes  0.1/[0.1]/0.1
Matrix Compiler2: 462 bytes object code size  0.1/0.1/[0.1]

