Circuit: * C:\Users\jblan\Google Drive\Electronics Lab\Lab4\GivenDocuments\Draft2.asc

Direct Newton iteration for .op point succeeded.

Date: Thu Apr 16 12:36:44 2020
Total elapsed time: 0.018 seconds.

tnom = 27
temp = 27
method = modified trap
totiter = 2111
traniter = 2104
tranpoints = 1053
accept = 1051
rejected = 2
matrix size = 15
fillins = 1
solver = Normal
Matrix Compiler1: 542 bytes object code size  0.1/0.1/[0.1]
Matrix Compiler2: 1.12 KB object code size  0.1/0.1/[0.1]

